<?xml version="1.0" encoding="UTF-8"?>

<!-- generated on 2023-04-17 12:22:08 by Eclipse SUMO duarouter Version 1.12.0
<configuration xmlns:xsi="http://www.w3.org/2001/XMLSchema-instance" xsi:noNamespaceSchemaLocation="http://sumo.dlr.de/xsd/duarouterConfiguration.xsd">

    <input>
        <net-file value="output/map.net.xml"/>
        <route-files value="trips.trips.xml"/>
    </input>

    <output>
        <output-file value="output/routes.rou.xml"/>
        <alternatives-output value="output/routes.rou.alt.xml"/>
    </output>

    <time>
        <begin value="0"/>
        <end value="50"/>
    </time>

    <report>
        <no-warnings value="true"/>
        <ignore-errors value="true"/>
        <no-step-log value="true"/>
    </report>

</configuration>
-->

<routes xmlns:xsi="http://www.w3.org/2001/XMLSchema-instance" xsi:noNamespaceSchemaLocation="http://sumo.dlr.de/xsd/routes_file.xsd">
    <vehicle id="veh_0" depart="0.00">
        <route edges="38746137#3 38746137#5 38746137#6 -88626532#1 -492578910#0 185846668#0 775086124#6 775086124#7 775086124#0 775086126 -61653605#1 -61653605#0 61653609 55198446#5 487833392#0 48579949#0 48579949#1 -35008492#3 42118309#0 -1153880033"/>
    </vehicle>
    <vehicle id="veh_1" depart="1.00">
        <route edges="-48579949#0 494012743#0 55198446#7 55198446#8 55198446#1 55198446#2 55198446#3 55198446#4 55198446#5 487833392#0 48579949#0 48579949#1 835044900#0 -42118295#15 -42118295#13 -42118295#10 -42118295#8 -42118295#7 -42118295#6 42118297#0 775134296#1 42118300#1 -42118298#0"/>
    </vehicle>
    <vehicle id="veh_2" depart="2.00">
        <route edges="42118311#0 42118311#1 -42118311#1 -42118311#0 42118313#2 -830078835#1 -42118295#10 -42118295#8 -42118295#7 -42118295#6 42118297#0 775134296#1 -42118300#0 42118299#1"/>
    </vehicle>
    <vehicle id="veh_3" depart="3.00">
        <route edges="775086124#1 775086124#2 775086124#3 775086124#4 775086124#5 775086124#6 775086136#0 775086138 38746139#1 105025774#0 -38746134#0 -37058862#2 -37058862#0"/>
    </vehicle>
    <vehicle id="veh_4" depart="4.00">
        <route edges="-830078835#1 42118295#11 24616384#0 24616384#2 24616384#3 -673688591#2 -210981075"/>
    </vehicle>
    <vehicle id="veh_5" depart="5.00">
        <route edges="-42118299#1 42118300#0 -775134296#1 -775134296#0 42118295#6 42118295#7 42118295#8 42118295#10 42118295#11 24616384#0 24616384#2"/>
    </vehicle>
    <vehicle id="veh_6" depart="6.00">
        <route edges="-24467896#1 -24467896#0 24467896#0 24467896#1 24467896#2 24467896#3 24467896#4 775086131 775086124#4 775086124#5 775086124#6 775086124#7 775086124#0 775086126 -61653605#1 -61653605#0 61653609 55198446#5 487833392#0 48579949#0 48579949#1 835044900#0 -42118295#15 -42118295#13 -42118295#10"/>
    </vehicle>
    <vehicle id="veh_8" depart="8.00">
        <route edges="-42118299#2 42118301#0 -775134296#0 -42118295#5 -42118295#3 -42118295#2 -42118295#1 -42118295#0 -91610000#1 -528895718#3 -528895718#2 -24512559#3 -24512559#1 492578907#0 835044899 -492578910#1 -492578910#0 185846668#0 775086124#6 775086136#0 775086138 38746139#1 105025774#0 38746134#1"/>
    </vehicle>
    <vehicle id="veh_9" depart="9.00">
        <route edges="55198446#7 55198446#8 55198446#1 55198446#2 55198446#3 61653606 61653605#0 61653605#1 775086125 775086124#2 775086124#3 775086124#4 775086124#5 775086124#6 775086136#0 775086139#0 775086139#2 775086137#1 -105025775#2"/>
    </vehicle>
    <vehicle id="veh_10" depart="10.00">
        <route edges="55198446#6 55198446#7 55198446#8 55198446#1 55198446#2 55198446#3 55198446#4 55198446#5 487833392#0 48579949#0 48579949#1 -35008492#3 42118309#0"/>
    </vehicle>
    <vehicle id="veh_11" depart="11.00">
        <route edges="-678036801#3 -678036801#1 -678036804 -42118295#6 -42118295#5 -42118295#3 -42118295#2 -42118295#1 -42118295#0 -91610000#1 -528895718#3 -528895718#2 -24512559#3 -24512559#1 492578907#0 835044899 -492578910#1 88626532#0 -38746137#6 -38746137#5 -38746137#4 -38746137#2 -38746137#1 -38746137#0"/>
    </vehicle>
    <vehicle id="veh_12" depart="12.00">
        <route edges="835044902 24512559#0 24512559#2 528895718#0 528895718#3 91610000#0 42118295#0 42118295#1 42118295#2 42118295#3 42118295#4 42118295#6 678036804 -678036801#5 -678036802 -678036801#1"/>
    </vehicle>
    <vehicle id="veh_13" depart="13.00">
        <route edges="-37089986#4 -37089986#2 -37089986#0"/>
    </vehicle>
    <vehicle id="veh_14" depart="14.00">
        <route edges="675089559 -42610719#6 -42610719#4 -42610719#2 -42118295#3 -42118295#2 -42118295#1 -42118295#0 -91610000#1 -528895718#3 -528895718#2 -24512559#3 -24512559#1 492578907#0 835044899 -492578910#1 88626532#0 38746137#7"/>
    </vehicle>
    <vehicle id="veh_15" depart="15.00">
        <route edges="55198446#6 55198446#7 55198446#8 55198446#1 55198446#2 55198446#3 55198446#4 55198446#5 487833392#0 48579949#0 48579949#1 835044900#0 -42118295#15 -42118295#13 -42118295#10 -42118295#8 -42118295#7 -42118295#6 -42118295#5 42691904#0"/>
    </vehicle>
    <vehicle id="veh_16" depart="16.00">
        <route edges="24512595#0 -528895718#2 -24512559#3 -24512559#1 492578907#0 835044899 -492578910#1 -492578910#0 185846668#0 775086124#6 775086136#0 88626531#0 88626531#1"/>
    </vehicle>
    <vehicle id="veh_17" depart="17.00">
        <route edges="-772208507 -42118290#1 -24512559#1 492578907#0 835044899 -492578910#1 -492578910#0 185846668#0 775086124#6 775086124#7 775086124#0 775086124#1 775086124#2 775086130 -24467896#4 -24467896#3 -24467896#2 38746124#0 37089987#1 37089987#2"/>
    </vehicle>
    <vehicle id="veh_18" depart="18.00">
        <route edges="622485628#0 774752087 38746137#5 38746137#6 -88626532#1 -492578910#0 185846668#0 775086124#6 775086124#7 775086124#0 775086126 -61653605#1 40528337#1"/>
    </vehicle>
    <vehicle id="veh_19" depart="19.00">
        <route edges="678036802 678036801#5 -678036804 42118295#7 42118295#8 42118295#10 42118295#11 42118295#14 -835044900#1 -48579949#2 -48579949#0 494012743#0 55198446#7 55198446#8 55198446#1 55198446#2 55198446#3 61653606 61653605#0 61653605#1 775086125 775086124#2 775086130 -672910024#2 -672910024#1 -672910024#0 -37089987#2 -37089987#1 -37089987#0 38746131#2"/>
    </vehicle>
    <vehicle id="veh_20" depart="20.00">
        <route edges="42118298#0 -42118300#1 -775134296#1 -775134296#0 42118295#6 42118295#7 42118295#8 42118295#10 42118295#11 42118295#14 -835044900#1 -48579949#2 -48579949#0 494012743#0 55198446#7 55198446#8 55198446#1 55198446#2 55198446#3 61653606 61653605#0 61653605#1 775086125 775086124#2 775086130 -24467896#4"/>
    </vehicle>
    <vehicle id="veh_22" depart="22.00">
        <route edges="-37058862#2 -37058862#0 38746134#0 -105025774#1 -38746139#2 -775086138 775086135#0 775086124#0 775086126 -61653605#1 -61653605#0 61653609 55198446#5 487833392#0 48579949#0 48579949#1 835044900#0 -42118295#15 -42118295#13 -42118295#10 -42118295#8 -42118295#7 -42118295#6 42118297#0 -42118301#0 -42118299#1"/>
    </vehicle>
    <vehicle id="veh_23" depart="23.00">
        <route edges="-37089987#1 -38746124#1 24467896#2 24467896#3 24467896#4 775086131 775086124#4 775086124#5 775086124#6 775086124#7 775086124#0 775086126 -61653605#1 -61653605#0 61653609 55198446#5 487833392#0 48579949#0 48579949#1 835044900#0 -42118295#15 24616384#0 24616384#2 24616384#3 -673688591#2 -42610720#4"/>
    </vehicle>
    <vehicle id="veh_24" depart="24.00">
        <route edges="38746137#1 -88626531#11 -773650393 773650393 88626531#11 -38746137#1 -773650388"/>
    </vehicle>
    <vehicle id="veh_25" depart="25.00">
        <route edges="-700425282 37089987#2 672910024#0 672910024#1 672910024#2 775086131 775086124#4 775086124#5 775086124#6 775086124#7 775086124#0 775086126 -61653605#1 -61653605#0 61653609 55198446#5 487833392#0 48579949#0 48579949#1 835044900#0 -42118295#15 -42118295#13 -42118295#10 -42118295#8 -42118295#7 -42118295#6 -42118295#5 -42118295#3 -42118295#2"/>
    </vehicle>
    <vehicle id="veh_26" depart="26.00">
        <route edges="-42610719#7 -42610719#6 -42610719#4 -42610719#2 -42118295#3 -42118295#2 775158269#0"/>
    </vehicle>
    <vehicle id="veh_27" depart="27.00">
        <route edges="38746138 24467896#3 24467896#4 775086131 775086124#4 775086124#5 775086124#6 775086136#0 775086138 38746139#1"/>
    </vehicle>
    <vehicle id="veh_28" depart="28.00">
        <route edges="-42118290#1 24512559#2 528895718#0 528895718#3 91610000#0 42118295#0 42118295#1 42118295#2 42118295#3 42691904#0"/>
    </vehicle>
    <vehicle id="veh_29" depart="29.00">
        <route edges="-38746140#1 37089985#1 24467896#4 775086131 775086124#4 775086124#5 775086124#6 775086136#0 775086139#0 775086139#2 775086137#1 775086137#2 775086137#3 38746144#1 105025824 -775086137#3 -775086137#2"/>
    </vehicle>
    <vehicle id="veh_30" depart="30.00">
        <route edges="88626531#5 -38746113 38746113 -88626531#6 -88626531#4 -88626531#3 -88626531#2 -88626531#1 -88626531#0 775086135#0 775086124#0 775086126 -61653605#1 -61653605#0 61653609 55198446#5 487833392#0 48579949#0 48579949#1 835044900#0 -42118295#15 -42118295#13 -42118295#10 -42118295#8 -42118295#7 -42118295#6 -42118295#5 -42118295#3 -42118295#2 -42118295#1 775158270#0 -775158270#1 42118295#1"/>
    </vehicle>
    <vehicle id="veh_31" depart="31.00">
        <route edges="341564312#5 38746138 24467896#3 24467896#4 775086131 775086124#4 775086124#5 775086124#6 775086124#7 775086124#0 775086126 -61653605#1 -61653605#0 61653609 55198446#5 487833392#0 48579949#0 48579949#1 835044900#0 -42118295#15 -42118295#13 -42118295#10 -42118295#8 -42118295#7 -42118295#6 42118297#0 775134296#1 42118300#1"/>
    </vehicle>
    <vehicle id="veh_32" depart="32.00">
        <route edges="674345313#0 -24616384#1 42118295#14 -835044900#1 -48579949#2 -48579949#0 494012743#0 55198446#7 55198446#8 55198446#1 55198446#2 55198446#3 55198446#4 55198446#5 55198446#6"/>
    </vehicle>
    <vehicle id="veh_34" depart="34.00">
        <route edges="-672910024#2 672910026 -672910026 672910024#2 775086131 775086124#4 775086124#5 775086124#6 775086124#7 775086124#0 775086126 -61653605#1 -61653605#0 61653609 55198446#5 487833392#0 48579949#0 48579949#1 835044900#0 -42118295#15 -42118295#13 -42118295#10 -42118303 -42610719#7 -42610719#6 -42610719#4 -42610719#2"/>
    </vehicle>
    <vehicle id="veh_35" depart="35.00">
        <route edges="-42118295#8 -42118295#7 -42118295#6 -42118295#5 42610719#0 42610719#3 42610719#5 42610719#7 42118303 42118295#10 830078835#0 42118313#3 830078833"/>
    </vehicle>
    <vehicle id="veh_36" depart="36.00">
        <route edges="773650373 88626530#1 42118290#12 38746137#1 -88626531#11 -88626531#10 -88626531#8 -88626531#6 -88626531#4 -88626531#3 -88626531#2 -88626531#1 -88626531#0 775086135#0 775086124#0 775086124#1 775086124#2 775086130 -672910024#2"/>
    </vehicle>
    <vehicle id="veh_37" depart="37.00">
        <route edges="38746142#0 -105025774#1 -38746139#2 -775086138 775086135#0 775086124#0 775086126 -61653605#1 -61653605#0 61653609 55198446#5 487833392#0 48579949#0 48579949#1 835044900#0 42118295#16 42118295#17 -42118295#17 -42118295#16 -835044900#1"/>
    </vehicle>
    <vehicle id="veh_38" depart="38.00">
        <route edges="775086130 775086131 775086124#4 775086124#5 775086124#6 775086136#0 775086139#0 775086139#2 775086137#1 775086137#2 775086137#3 105025823#0"/>
    </vehicle>
    <vehicle id="veh_39" depart="39.00">
        <route edges="-42610719#6 -42610719#4 -42610719#2 42118295#4 42118295#6 42118295#7 42118295#8 42118295#10 42118295#11 24616384#0 24616384#2 -673511385 -42118306#2"/>
    </vehicle>
    <vehicle id="veh_40" depart="40.00">
        <route edges="34334175#0 35008492#0 42118309#0 42118309#3 42118311#0 -42118313#5"/>
    </vehicle>
    <vehicle id="veh_42" depart="42.00">
        <route edges="-775086138 775086135#0 775086124#0 775086126 -61653605#1 -61653605#0 61653609 55198446#5 487833392#0 48579949#0 48579949#1 835044900#0 -42118295#15 -42118295#13 -42118295#10 -42118295#8 -42118295#7"/>
    </vehicle>
    <vehicle id="veh_43" depart="43.00">
        <route edges="91610000#0 42118295#0 42118295#1 42118295#2 42118295#3 42118295#4 42118295#6 42118295#7 42118295#8 42118295#10 42118295#11 24616384#0 24616384#2 24616384#3 24616384#5"/>
    </vehicle>
    <vehicle id="veh_46" depart="46.00">
        <route edges="528895718#3 91610000#0 42118295#0 775158270#0 -775158270#1 -42118295#0 -91610000#1 -528895718#3 -528895718#2 -24512559#3 -24512559#1 492578907#0 835044899 -492578910#1 -492578910#0 185846668#0 775086124#6 775086136#0 88626531#0 88626531#1 68834812 -68834812 -88626531#1"/>
    </vehicle>
    <vehicle id="veh_47" depart="47.00">
        <route edges="-341564312#7 38746138 24467896#3 24467896#4 775086131 775086124#4 775086124#5 775086124#6 775086136#0 775086139#0 775086139#2 775086137#1 775086137#2 775086137#3 38746144#1 105025824 -775086137#3"/>
    </vehicle>
    <vehicle id="veh_48" depart="48.00">
        <route edges="88626532#0 38746137#7 -38746126 -88626532#1 -492578910#0 185846668#0 775086124#6 775086124#7 775086124#0 775086126 -61653605#1 -61653605#0 61653609 55198446#5 487833392#0 48579949#0 48579949#1 -35008492#3 42118309#0 -1153880033 1153880033 -42118309#1 35008492#3"/>
    </vehicle>
</routes>
