<?xml version="1.0" encoding="UTF-8"?>
<!-- generated on 2023-04-17 12:22:07.939662 by randomTrips.py UNKNOWN
  options: -n output/map.net.xml -r output/routes.rou.xml <doubleminus>prefix veh_ -e 50
-->
<routes xmlns:xsi="http://www.w3.org/2001/XMLSchema-instance" xsi:noNamespaceSchemaLocation="http://sumo.dlr.de/xsd/routes_file.xsd">
    <trip id="veh_0" depart="0.00" from="38746137#3" to="-1153880033"/>
    <trip id="veh_1" depart="1.00" from="-48579949#0" to="-42118298#0"/>
    <trip id="veh_2" depart="2.00" from="42118311#0" to="42118299#1"/>
    <trip id="veh_3" depart="3.00" from="775086124#1" to="-37058862#0"/>
    <trip id="veh_4" depart="4.00" from="-830078835#1" to="-210981075"/>
    <trip id="veh_5" depart="5.00" from="-42118299#1" to="24616384#2"/>
    <trip id="veh_6" depart="6.00" from="-24467896#1" to="-42118295#10"/>
    <trip id="veh_7" depart="7.00" from="38746139#0" to="37089986#3"/>
    <trip id="veh_8" depart="8.00" from="-42118299#2" to="38746134#1"/>
    <trip id="veh_9" depart="9.00" from="55198446#7" to="-105025775#2"/>
    <trip id="veh_10" depart="10.00" from="55198446#6" to="42118309#0"/>
    <trip id="veh_11" depart="11.00" from="-678036801#3" to="-38746137#0"/>
    <trip id="veh_12" depart="12.00" from="835044902" to="-678036801#1"/>
    <trip id="veh_13" depart="13.00" from="-37089986#4" to="-37089986#0"/>
    <trip id="veh_14" depart="14.00" from="675089559" to="38746137#7"/>
    <trip id="veh_15" depart="15.00" from="55198446#6" to="42691904#0"/>
    <trip id="veh_16" depart="16.00" from="24512595#0" to="88626531#1"/>
    <trip id="veh_17" depart="17.00" from="-772208507" to="37089987#2"/>
    <trip id="veh_18" depart="18.00" from="622485628#0" to="40528337#1"/>
    <trip id="veh_19" depart="19.00" from="678036802" to="38746131#2"/>
    <trip id="veh_20" depart="20.00" from="42118298#0" to="-24467896#4"/>
    <trip id="veh_21" depart="21.00" from="-42118301#0" to="-528895697"/>
    <trip id="veh_22" depart="22.00" from="-37058862#2" to="-42118299#1"/>
    <trip id="veh_23" depart="23.00" from="-37089987#1" to="-42610720#4"/>
    <trip id="veh_24" depart="24.00" from="38746137#1" to="-773650388"/>
    <trip id="veh_25" depart="25.00" from="-700425282" to="-42118295#2"/>
    <trip id="veh_26" depart="26.00" from="-42610719#7" to="775158269#0"/>
    <trip id="veh_27" depart="27.00" from="38746138" to="38746139#1"/>
    <trip id="veh_28" depart="28.00" from="-42118290#1" to="42691904#0"/>
    <trip id="veh_29" depart="29.00" from="-38746140#1" to="-775086137#2"/>
    <trip id="veh_30" depart="30.00" from="88626531#5" to="42118295#1"/>
    <trip id="veh_31" depart="31.00" from="341564312#5" to="42118300#1"/>
    <trip id="veh_32" depart="32.00" from="674345313#0" to="55198446#6"/>
    <trip id="veh_33" depart="33.00" from="-42118301#0" to="-210981079#1"/>
    <trip id="veh_34" depart="34.00" from="-672910024#2" to="-42610719#2"/>
    <trip id="veh_35" depart="35.00" from="-42118295#8" to="830078833"/>
    <trip id="veh_36" depart="36.00" from="773650373" to="-672910024#2"/>
    <trip id="veh_37" depart="37.00" from="38746142#0" to="-835044900#1"/>
    <trip id="veh_38" depart="38.00" from="775086130" to="105025823#0"/>
    <trip id="veh_39" depart="39.00" from="-42610719#6" to="-42118306#2"/>
    <trip id="veh_40" depart="40.00" from="34334175#0" to="-42118313#5"/>
    <trip id="veh_41" depart="41.00" from="37089986#3" to="775086124#7"/>
    <trip id="veh_42" depart="42.00" from="-775086138" to="-42118295#7"/>
    <trip id="veh_43" depart="43.00" from="91610000#0" to="24616384#5"/>
    <trip id="veh_44" depart="44.00" from="-37089986#4" to="-24467896#4"/>
    <trip id="veh_45" depart="45.00" from="-37089990#2" to="42118290#2"/>
    <trip id="veh_46" depart="46.00" from="528895718#3" to="-88626531#1"/>
    <trip id="veh_47" depart="47.00" from="-341564312#7" to="-775086137#3"/>
    <trip id="veh_48" depart="48.00" from="88626532#0" to="35008492#3"/>
    <trip id="veh_49" depart="49.00" from="88626530#1" to="700422240"/>
</routes>
