<?xml version="1.0" encoding="UTF-8"?>

<!-- generated on 2023-05-18 11:10:26 by Eclipse SUMO netconvert Version 1.12.0
<configuration xmlns:xsi="http://www.w3.org/2001/XMLSchema-instance" xsi:noNamespaceSchemaLocation="http://sumo.dlr.de/xsd/netconvertConfiguration.xsd">

    <input>
        <type-files value="/home/ray/ms-van3t/Scenario_Generator//configs/../typemap/osmNetconvert.typ.xml,/home/ray/ms-van3t/Scenario_Generator//configs/../typemap/osmNetconvertUrbanDe.typ.xml"/>
        <osm-files value="/home/ray/ms-van3t/Scenario_Generator//configs/../maps/map.osm"/>
    </input>

    <output>
        <output-file value="/home/ray/ms-van3t/Scenario_Generator//output/map.net.xml"/>
    </output>

    <projection>
        <proj.utm value="true"/>
    </projection>

    <processing>
        <geometry.remove value="true"/>
        <roundabouts.guess value="true"/>
    </processing>

    <building_defaults>
        <default.crossing-width value="2"/>
    </building_defaults>

    <tls_building>
        <tls.join value="true"/>
        <tls.guess-signals value="true"/>
        <tls.default-type value="actuated"/>
        <tls.min-dur value="5"/>
        <tls.max-dur value="30"/>
    </tls_building>

    <ramp_guessing>
        <ramps.guess value="true"/>
    </ramp_guessing>

    <junctions>
        <no-internal-links value="false"/>
        <no-turnarounds.except-deadend value="true"/>
        <junctions.join value="true"/>
        <junctions.limit-turn-speed value="1"/>
    </junctions>

    <pedestrian>
        <crossings.guess value="true"/>
        <walkingareas value="false"/>
    </pedestrian>

    <formats>
        <osm.elevation value="true"/>
    </formats>

    <report>
        <verbose value="true"/>
        <aggregate-warnings value="5"/>
        <log value="/home/ray/ms-van3t/Scenario_Generator//configs/../logs/netconvert.log"/>
        <ignore-errors value="false"/>
        <ignore-errors.connections value="false"/>
        <show-errors.connections-first-try value="true"/>
    </report>

</configuration>
-->

<net version="1.9" junctionCornerDetail="5" walkingareas="true" limitTurnSpeed="1.00" xmlns:xsi="http://www.w3.org/2001/XMLSchema-instance" xsi:noNamespaceSchemaLocation="http://sumo.dlr.de/xsd/net_file.xsd">

    <location netOffset="-654493.24,-6535794.19" convBoundary="0.00,0.00,1205.22,689.75" origBoundary="5.684801,58.933802,5.705396,58.939796" projParameter="+proj=utm +zone=31 +ellps=WGS84 +datum=WGS84 +units=m +no_defs"/>

    <type id="highway.living_street" priority="3" numLanes="1" speed="2.78" disallow="tram rail_urban rail rail_electric ship" oneway="0"/>
    <type id="highway.motorway" priority="13" numLanes="3" speed="27.78" disallow="pedestrian moped bicycle tram rail_urban rail rail_electric ship" oneway="1"/>
    <type id="highway.motorway_bridge" priority="13" numLanes="3" speed="44.44" disallow="pedestrian moped bicycle tram rail_urban rail rail_electric ship" oneway="1"/>
    <type id="highway.motorway_link" priority="12" numLanes="1" speed="16.67" disallow="pedestrian moped bicycle tram rail_urban rail rail_electric ship" oneway="1"/>
    <type id="highway.motorway_tunnel" priority="13" numLanes="3" speed="44.44" disallow="pedestrian moped bicycle tram rail_urban rail rail_electric ship" oneway="1"/>
    <type id="highway.primary" priority="9" numLanes="2" speed="13.89" disallow="pedestrian bicycle tram rail_urban rail rail_electric ship" oneway="0"/>
    <type id="highway.primary_bridge" priority="9" numLanes="2" speed="27.78" disallow="pedestrian bicycle tram rail_urban rail rail_electric ship" oneway="0"/>
    <type id="highway.primary_link" priority="8" numLanes="1" speed="13.89" disallow="pedestrian bicycle tram rail_urban rail rail_electric ship" oneway="0"/>
    <type id="highway.primary_tunnel" priority="9" numLanes="2" speed="27.78" disallow="pedestrian bicycle tram rail_urban rail rail_electric ship" oneway="0"/>
    <type id="highway.residential" priority="4" numLanes="1" speed="13.89" disallow="tram rail_urban rail rail_electric ship" oneway="0"/>
    <type id="highway.residential_bridge" priority="4" numLanes="1" speed="13.89" disallow="tram rail_urban rail rail_electric ship" oneway="0"/>
    <type id="highway.residential_tunnel" priority="4" numLanes="1" speed="13.89" disallow="tram rail_urban rail rail_electric ship" oneway="0"/>
    <type id="highway.secondary" priority="7" numLanes="2" speed="13.89" disallow="pedestrian tram rail_urban rail rail_electric ship" oneway="0"/>
    <type id="highway.secondary_bridge" priority="7" numLanes="2" speed="27.78" disallow="pedestrian tram rail_urban rail rail_electric ship" oneway="0"/>
    <type id="highway.secondary_link" priority="6" numLanes="1" speed="13.89" disallow="pedestrian tram rail_urban rail rail_electric ship" oneway="0"/>
    <type id="highway.secondary_tunnel" priority="7" numLanes="2" speed="27.78" disallow="pedestrian tram rail_urban rail rail_electric ship" oneway="0"/>
    <type id="highway.service" priority="1" numLanes="1" speed="5.56" disallow="tram rail_urban rail rail_electric ship" oneway="0"/>
    <type id="highway.services" priority="1" numLanes="1" speed="8.33" disallow="tram rail_urban rail rail_electric ship" oneway="0"/>
    <type id="highway.tertiary" priority="6" numLanes="1" speed="13.89" disallow="pedestrian tram rail_urban rail rail_electric ship" oneway="0"/>
    <type id="highway.tertiary_bridge" priority="6" numLanes="1" speed="22.22" disallow="pedestrian tram rail_urban rail rail_electric ship" oneway="0"/>
    <type id="highway.tertiary_link" priority="5" numLanes="1" speed="13.89" disallow="pedestrian tram rail_urban rail rail_electric ship" oneway="0"/>
    <type id="highway.tertiary_tunnel" priority="6" numLanes="1" speed="22.22" disallow="pedestrian tram rail_urban rail rail_electric ship" oneway="0"/>
    <type id="highway.track" priority="1" numLanes="1" speed="5.56" disallow="tram rail_urban rail rail_electric ship" oneway="0"/>
    <type id="highway.trunk" priority="11" numLanes="2" speed="13.89" disallow="pedestrian bicycle tram rail_urban rail rail_electric ship" oneway="0"/>
    <type id="highway.trunk_bridge" priority="11" numLanes="2" speed="27.78" disallow="pedestrian bicycle tram rail_urban rail rail_electric ship" oneway="0"/>
    <type id="highway.trunk_link" priority="10" numLanes="1" speed="13.89" disallow="pedestrian bicycle tram rail_urban rail rail_electric ship" oneway="0"/>
    <type id="highway.trunk_tunnel" priority="11" numLanes="2" speed="27.78" disallow="pedestrian bicycle tram rail_urban rail rail_electric ship" oneway="0"/>
    <type id="highway.unclassified" priority="5" numLanes="1" speed="13.89" disallow="tram rail_urban rail rail_electric ship" oneway="0"/>
    <type id="highway.unsurfaced" priority="1" numLanes="1" speed="8.33" disallow="tram rail_urban rail rail_electric ship" oneway="0"/>

    <edge id=":10230107791_0" function="internal">
        <lane id=":10230107791_0_0" index="0" disallow="tram rail_urban rail rail_electric ship" speed="1.56" length="4.67" shape="29.89,201.96 30.88,200.91 31.73,200.64 32.46,201.17 33.05,202.48"/>
    </edge>
    <edge id=":10230121286_0" function="internal">
        <lane id=":10230121286_0_0" index="0" disallow="tram rail_urban rail rail_electric ship" speed="1.56" length="4.67" shape="35.04,167.90 35.91,169.05 36.02,169.94 35.37,170.56 33.97,170.91"/>
    </edge>
    <edge id=":10230121287_0" function="internal">
        <lane id=":10230121287_0_0" index="0" disallow="tram rail_urban rail rail_electric ship" speed="1.56" length="4.67" shape="17.32,165.02 16.46,163.86 16.35,162.97 16.99,162.35 18.39,162.00"/>
    </edge>
    <edge id=":10230137476_0" function="internal">
        <lane id=":10230137476_0_0" index="0" disallow="tram rail_urban rail rail_electric ship" speed="1.56" length="4.67" shape="24.73,483.23 23.29,483.22 22.52,482.76 22.41,481.88 22.98,480.55"/>
    </edge>
    <edge id=":10261666206_0" function="internal">
        <lane id=":10261666206_0_0" index="0" disallow="tram rail_urban rail rail_electric ship" speed="13.89" length="14.41" shape="631.58,609.84 617.19,609.07"/>
    </edge>
    <edge id=":10261666206_1" function="internal">
        <lane id=":10261666206_1_0" index="0" disallow="tram rail_urban rail rail_electric ship" speed="3.38" length="4.10" shape="631.58,609.84 627.70,609.07 627.58,608.98"/>
    </edge>
    <edge id=":10261666206_6" function="internal">
        <lane id=":10261666206_6_0" index="0" disallow="tram rail_urban rail rail_electric ship" speed="3.38" length="10.26" shape="627.58,608.98 625.05,607.23 623.63,604.34 623.45,600.39"/>
    </edge>
    <edge id=":10261666206_2" function="internal">
        <lane id=":10261666206_2_0" index="0" disallow="tram rail_urban rail rail_electric ship" speed="2.74" length="9.04" shape="626.63,600.69 626.75,603.18 627.64,605.00 629.31,606.16 631.75,606.64"/>
    </edge>
    <edge id=":10261666206_3" function="internal">
        <lane id=":10261666206_3_0" index="0" disallow="tram rail_urban rail rail_electric ship" speed="3.47" length="14.25" shape="626.63,600.69 625.72,604.53 623.85,607.20 621.00,608.72 617.19,609.07"/>
    </edge>
    <edge id=":10261666206_4" function="internal">
        <lane id=":10261666206_4_0" index="0" disallow="tram rail_urban rail rail_electric ship" speed="2.85" length="9.25" shape="617.36,605.87 619.82,605.64 621.65,604.65 622.86,602.90 623.45,600.39"/>
    </edge>
    <edge id=":10261666206_5" function="internal">
        <lane id=":10261666206_5_0" index="0" disallow="tram rail_urban rail rail_electric ship" speed="13.89" length="14.41" shape="617.36,605.87 631.75,606.64"/>
    </edge>
    <edge id=":10261666206_w0" function="walkingarea">
        <lane id=":10261666206_w0_0" index="0" allow="pedestrian" speed="1.00" length="10.08" width="3.20" shape="631.49,611.43 631.66,608.24 631.66,608.24 631.83,605.04 628.22,600.85 625.04,600.54 625.04,600.54 621.85,600.23 617.45,604.27 617.28,607.47 617.28,607.47 617.11,610.66"/>
    </edge>
    <edge id=":10261669520_0" function="internal">
        <lane id=":10261669520_0_0" index="0" disallow="tram rail_urban rail rail_electric ship" speed="1.56" length="4.67" shape="443.15,551.08 441.98,550.24 441.60,549.43 442.03,548.64 443.25,547.88"/>
    </edge>
    <edge id=":1029137158_0" function="internal">
        <lane id=":1029137158_0_0" index="0" disallow="tram rail_urban rail rail_electric ship" speed="5.56" length="14.26" shape="517.74,148.00 514.84,134.03"/>
    </edge>
    <edge id=":1029137158_1" function="internal">
        <lane id=":1029137158_1_0" index="0" disallow="tram rail_urban rail rail_electric ship" speed="3.45" length="14.17" shape="517.74,148.00 517.56,144.17 518.65,141.15 521.02,138.95 524.65,137.56"/>
    </edge>
    <edge id=":1029137158_2" function="internal">
        <lane id=":1029137158_2_0" index="0" disallow="tram rail_urban rail rail_electric ship" speed="2.83" length="9.14" shape="525.37,140.68 523.01,141.57 521.48,142.99 520.77,144.93 520.88,147.39"/>
    </edge>
    <edge id=":1029137158_3" function="internal">
        <lane id=":1029137158_3_0" index="0" disallow="tram rail_urban rail rail_electric ship" speed="3.41" length="14.22" shape="525.37,140.68 521.48,141.00 518.43,140.00 516.22,137.68 514.84,134.03"/>
    </edge>
    <edge id=":1029137158_4" function="internal">
        <lane id=":1029137158_4_0" index="0" disallow="tram rail_urban rail rail_electric ship" speed="2.77" length="9.03" shape="517.97,133.34 518.84,135.66 520.25,137.13 522.19,137.77 524.65,137.56"/>
    </edge>
    <edge id=":1029137158_5" function="internal">
        <lane id=":1029137158_5_0" index="0" disallow="tram rail_urban rail rail_electric ship" speed="5.56" length="14.35" shape="517.97,133.34 520.88,147.39"/>
    </edge>
    <edge id=":1029137158_w0" function="walkingarea">
        <lane id=":1029137158_w0_0" index="0" allow="pedestrian" speed="1.00" length="10.03" width="3.20" shape="516.17,148.30 519.31,147.69 519.31,147.69 522.45,147.09 525.73,142.24 525.01,139.12 525.01,139.12 524.30,136.00 519.53,132.99 516.40,133.68 516.40,133.68 513.28,134.38"/>
    </edge>
    <edge id=":1029137166_0" function="internal">
        <lane id=":1029137166_0_0" index="0" disallow="tram rail_urban rail rail_electric ship" speed="3.52" length="12.78" shape="602.87,337.21 601.53,334.32 599.42,332.34 596.55,331.27 592.92,331.12"/>
    </edge>
    <edge id=":1029137166_1" function="internal">
        <lane id=":1029137166_1_0" index="0" disallow="tram rail_urban rail rail_electric ship" speed="3.44" length="14.40" shape="602.87,337.21 602.00,332.61 602.35,329.04 603.91,326.51 606.69,325.01"/>
    </edge>
    <edge id=":1029137166_2" function="internal">
        <lane id=":1029137166_2_0" index="0" disallow="tram rail_urban rail rail_electric ship" speed="2.63" length="7.98" shape="607.58,328.08 606.06,328.91 605.22,330.32 605.04,332.30 605.53,334.87"/>
    </edge>
    <edge id=":1029137166_3" function="internal">
        <lane id=":1029137166_3_0" index="0" disallow="tram rail_urban rail rail_electric ship" speed="5.56" length="15.00" shape="607.58,328.08 603.97,329.09 600.32,329.98 596.64,330.68 592.92,331.12"/>
    </edge>
    <edge id=":1029137166_4" function="internal">
        <lane id=":1029137166_4_0" index="0" disallow="tram rail_urban rail rail_electric ship" speed="5.56" length="14.33" shape="592.68,327.93 596.30,327.51 599.75,326.85 603.17,326.00 606.69,325.01"/>
    </edge>
    <edge id=":1029137166_5" function="internal">
        <lane id=":1029137166_5_0" index="0" disallow="tram rail_urban rail rail_electric ship" speed="3.91" length="15.95" shape="592.68,327.93 597.46,328.06 601.20,329.27 603.89,331.53 605.53,334.87"/>
    </edge>
    <edge id=":1029137166_w0" function="walkingarea">
        <lane id=":1029137166_w0_0" index="0" allow="pedestrian" speed="1.00" length="10.83" width="3.20" shape="601.33,337.66 604.41,336.77 603.99,335.31 607.06,334.43 608.03,329.62 607.13,326.54 607.13,326.54 606.24,323.47 592.56,326.33 592.80,329.52 592.80,329.52 593.04,332.71 600.67,336.01 599.71,334.69 598.47,333.70 596.95,333.04 595.14,332.71"/>
    </edge>
    <edge id=":1029137171_0" function="internal">
        <lane id=":1029137171_0_0" index="0" disallow="tram rail_urban rail rail_electric ship" speed="5.56" length="10.73" shape="661.70,304.65 660.92,301.65 660.09,299.53 658.79,297.67 656.64,295.46"/>
    </edge>
    <edge id=":1029137171_1" function="internal">
        <lane id=":1029137171_1_0" index="0" disallow="tram rail_urban rail rail_electric ship" speed="3.43" length="12.91" shape="661.70,304.65 661.35,301.19 662.14,298.32 664.05,296.05 667.10,294.36"/>
    </edge>
    <edge id=":1029137171_2" function="internal">
        <lane id=":1029137171_2_0" index="0" disallow="tram rail_urban rail rail_electric ship" speed="2.79" length="8.22" shape="668.24,297.35 666.30,298.42 665.09,299.87 664.59,301.70 664.81,303.90"/>
    </edge>
    <edge id=":1029137171_3" function="internal">
        <lane id=":1029137171_3_0" index="0" disallow="tram rail_urban rail rail_electric ship" speed="3.90" length="12.45" shape="668.24,297.35 664.95,298.22 661.92,298.19 659.15,297.27 656.64,295.46"/>
    </edge>
    <edge id=":1029137171_4" function="internal">
        <lane id=":1029137171_4_0" index="0" disallow="tram rail_urban rail rail_electric ship" speed="3.32" length="8.83" shape="658.85,293.14 660.60,294.39 662.55,295.01 664.72,295.00 667.10,294.36"/>
    </edge>
    <edge id=":1029137171_5" function="internal">
        <lane id=":1029137171_5_0" index="0" disallow="tram rail_urban rail rail_electric ship" speed="5.56" length="12.51" shape="658.85,293.14 661.14,295.60 662.74,297.99 663.89,300.65 664.81,303.90"/>
    </edge>
    <edge id=":1029137171_w0" function="walkingarea">
        <lane id=":1029137171_w0_0" index="0" allow="pedestrian" speed="1.00" length="9.03" width="3.20" shape="660.14,305.03 663.25,304.28 663.25,304.28 666.36,303.52 668.82,298.84 667.67,295.86 667.67,295.86 666.53,292.87 659.95,291.99 657.75,294.30 657.75,294.30 655.54,296.62 659.65,303.02 659.22,301.52 658.72,300.32 658.03,299.24 657.01,298.07"/>
    </edge>
    <edge id=":1029137177_0" function="internal">
        <lane id=":1029137177_0_0" index="0" disallow="pedestrian tram rail_urban rail rail_electric ship" speed="2.56" length="8.94" shape="537.23,126.70 537.23,124.26 536.34,122.60 534.58,121.73 531.93,121.63"/>
    </edge>
    <edge id=":1029137177_1" function="internal">
        <lane id=":1029137177_1_0" index="0" disallow="pedestrian tram rail_urban rail rail_electric ship" speed="3.96" length="16.57" shape="537.23,126.70 538.50,121.36 540.40,117.51 542.95,115.15 546.14,114.27"/>
    </edge>
    <edge id=":1029137177_2" function="internal">
        <lane id=":1029137177_2_0" index="0" disallow="pedestrian tram rail_urban rail rail_electric ship" speed="2.99" length="9.10" shape="546.38,120.67 544.14,121.10 542.41,122.22 541.19,124.02 540.50,126.50"/>
    </edge>
    <edge id=":1029137177_3" function="internal">
        <lane id=":1029137177_3_0" index="0" disallow="pedestrian tram rail_urban rail rail_electric ship" speed="13.89" length="14.58" shape="546.38,120.67 531.93,121.63"/>
        <lane id=":1029137177_3_1" index="1" disallow="pedestrian tram rail_urban rail rail_electric ship" speed="13.89" length="14.58" shape="546.26,117.47 531.62,118.44"/>
    </edge>
    <edge id=":1029137177_5" function="internal">
        <lane id=":1029137177_5_0" index="0" disallow="pedestrian tram rail_urban rail rail_electric ship" speed="13.89" length="14.94" shape="531.02,112.07 546.02,111.07"/>
        <lane id=":1029137177_5_1" index="1" disallow="pedestrian tram rail_urban rail rail_electric ship" speed="13.89" length="14.94" shape="531.32,115.26 546.14,114.27"/>
    </edge>
    <edge id=":1029137177_7" function="internal">
        <lane id=":1029137177_7_0" index="0" disallow="pedestrian tram rail_urban rail rail_electric ship" speed="3.48" length="4.74" shape="531.32,115.26 536.06,115.56"/>
    </edge>
    <edge id=":1029137177_8" function="internal">
        <lane id=":1029137177_8_0" index="0" disallow="pedestrian tram rail_urban rail rail_electric ship" speed="3.48" length="12.94" shape="536.06,115.56 539.16,117.54 540.64,121.19 540.50,126.50"/>
    </edge>
    <edge id=":1029137177_w0" function="walkingarea">
        <lane id=":1029137177_w0_0" index="0" allow="pedestrian" speed="1.00" length="3.28" width="3.20" shape="535.65,126.46 538.81,126.95 538.92,126.26 542.08,126.75"/>
    </edge>
    <edge id=":1044198799_0" function="internal">
        <lane id=":1044198799_0_0" index="0" disallow="tram rail_urban rail rail_electric ship" speed="2.84" length="9.38" shape="471.77,333.87 471.30,331.26 470.16,329.42 468.37,328.34 465.91,328.04"/>
    </edge>
    <edge id=":1044198799_1" function="internal">
        <lane id=":1044198799_1_0" index="0" disallow="tram rail_urban rail rail_electric ship" speed="3.33" length="14.62" shape="471.77,333.87 472.16,329.82 473.77,327.00 476.61,325.43 480.66,325.10"/>
    </edge>
    <edge id=":1044198799_2" function="internal">
        <lane id=":1044198799_2_0" index="0" disallow="tram rail_urban rail rail_electric ship" speed="2.68" length="9.04" shape="480.47,328.30 477.96,328.50 476.20,329.47 475.21,331.21 474.96,333.72"/>
    </edge>
    <edge id=":1044198799_3" function="internal">
        <lane id=":1044198799_3_0" index="0" disallow="tram rail_urban rail rail_electric ship" speed="5.56" length="14.56" shape="480.47,328.30 476.79,328.11 473.19,328.00 469.60,327.98 465.91,328.04"/>
    </edge>
    <edge id=":1044198799_4" function="internal">
        <lane id=":1044198799_4_0" index="0" disallow="tram rail_urban rail rail_electric ship" speed="5.56" length="14.85" shape="465.82,324.84 469.55,324.78 473.24,324.80 476.94,324.91 480.66,325.10"/>
    </edge>
    <edge id=":1044198799_5" function="internal">
        <lane id=":1044198799_5_0" index="0" disallow="tram rail_urban rail rail_electric ship" speed="3.46" length="14.47" shape="465.82,324.84 469.66,325.30 472.46,326.93 474.23,329.74 474.96,333.72"/>
    </edge>
    <edge id=":1044198799_w0" function="walkingarea">
        <lane id=":1044198799_w0_0" index="0" allow="pedestrian" speed="1.00" length="10.16" width="3.20" shape="470.17,333.94 473.37,333.79 473.37,333.79 476.56,333.64 480.37,329.89 480.56,326.70 480.56,326.70 480.76,323.51 465.77,323.25 465.87,326.44 465.87,326.44 465.96,329.64 469.99,332.60 469.61,331.50 469.01,330.66 468.21,330.07 467.19,329.73"/>
    </edge>
    <edge id=":10731379432_0" function="internal">
        <lane id=":10731379432_0_0" index="0" disallow="tram rail_urban rail rail_electric ship" speed="1.56" length="4.67" shape="868.30,576.90 868.48,578.33 868.14,579.16 867.28,579.38 865.89,579.00"/>
    </edge>
    <edge id=":10731379445_0" function="internal">
        <lane id=":10731379445_0_0" index="0" disallow="tram rail_urban rail rail_electric ship" speed="1.56" length="4.67" shape="784.52,449.37 785.09,448.04 785.81,447.51 786.66,447.76 787.67,448.80"/>
    </edge>
    <edge id=":1117572776_0" function="internal">
        <lane id=":1117572776_0_0" index="0" disallow="tram rail_urban rail rail_electric ship" speed="1.56" length="4.67" shape="940.52,667.48 941.68,668.34 942.04,669.16 941.60,669.94 940.36,670.68"/>
    </edge>
    <edge id=":1117573531_0" function="internal">
        <lane id=":1117573531_0_0" index="0" disallow="tram rail_urban rail rail_electric ship" speed="5.56" length="3.51" shape="1193.71,126.59 1194.58,126.15 1195.36,126.19 1196.14,126.23 1197.01,125.79"/>
    </edge>
    <edge id=":1117573531_w0" function="walkingarea">
        <lane id=":1117573531_w0_0" index="0" allow="pedestrian" speed="1.00" length="3.33" width="3.20" shape="1198.08,126.98 1195.94,124.60 1192.65,125.39 1194.77,127.78 1194.77,127.78 1196.90,130.18 1197.64,127.53 1197.49,128.06 1197.49,128.58 1197.49,129.10 1197.34,129.63"/>
    </edge>
    <edge id=":1137200639_0" function="internal">
        <lane id=":1137200639_0_0" index="0" disallow="tram rail_urban rail rail_electric ship" speed="1.56" length="4.67" shape="553.74,634.50 554.95,635.29 555.36,636.08 554.97,636.89 553.78,637.70"/>
    </edge>
    <edge id=":1137201241_0" function="internal">
        <lane id=":1137201241_0_0" index="0" disallow="tram rail_urban rail rail_electric ship" speed="1.56" length="4.67" shape="135.20,635.31 135.90,634.05 136.66,633.58 137.49,633.92 138.39,635.05"/>
    </edge>
    <edge id=":1137201701_0" function="internal">
        <lane id=":1137201701_0_0" index="0" disallow="tram rail_urban rail rail_electric ship" speed="1.56" length="4.67" shape="604.21,416.56 603.35,417.72 602.53,418.08 601.75,417.65 601.01,416.41"/>
    </edge>
    <edge id=":1137203061_0" function="internal">
        <lane id=":1137203061_0_0" index="0" disallow="tram rail_urban rail rail_electric ship" speed="9.72" length="13.87" shape="296.75,179.34 295.08,182.50 293.61,185.52 292.23,188.59 290.86,191.89"/>
    </edge>
    <edge id=":1137203061_1" function="internal">
        <lane id=":1137203061_1_0" index="0" disallow="tram rail_urban rail rail_electric ship" speed="3.61" length="14.11" shape="296.75,179.34 294.54,182.28 291.79,183.95 288.51,184.36 284.69,183.52"/>
    </edge>
    <edge id=":1137203061_2" function="internal">
        <lane id=":1137203061_2_0" index="0" disallow="tram rail_urban rail rail_electric ship" speed="3.00" length="9.50" shape="285.78,180.51 288.38,181.10 290.61,180.84 292.47,179.75 293.94,177.81"/>
    </edge>
    <edge id=":1137203061_3" function="internal">
        <lane id=":1137203061_3_0" index="0" disallow="tram rail_urban rail rail_electric ship" speed="3.38" length="2.64" shape="285.78,180.51 288.10,181.75"/>
    </edge>
    <edge id=":1137203061_6" function="internal">
        <lane id=":1137203061_6_0" index="0" disallow="tram rail_urban rail rail_electric ship" speed="3.38" length="11.70" shape="288.10,181.75 289.26,182.36 291.27,184.88 291.80,188.05 290.86,191.89"/>
    </edge>
    <edge id=":1137203061_4" function="internal">
        <lane id=":1137203061_4_0" index="0" disallow="tram rail_urban rail rail_electric ship" speed="2.74" length="9.03" shape="287.89,190.69 288.49,188.27 288.15,186.27 286.89,184.69 284.69,183.52"/>
    </edge>
    <edge id=":1137203061_5" function="internal">
        <lane id=":1137203061_5_0" index="0" disallow="tram rail_urban rail rail_electric ship" speed="9.72" length="14.24" shape="287.89,190.69 289.29,187.34 290.72,184.16 292.25,181.02 293.94,177.81"/>
    </edge>
    <edge id=":1137203061_w0" function="walkingarea">
        <lane id=":1137203061_w0_0" index="0" allow="pedestrian" speed="1.00" length="10.06" width="3.20" shape="298.15,180.10 295.34,178.57 295.34,178.57 292.53,177.04 286.32,179.00 285.23,182.01 285.23,182.01 284.14,185.02 286.41,190.09 289.37,191.29 289.37,191.29 292.34,192.49 296.77,182.67 295.76,184.58 294.98,186.17 294.26,187.79 293.43,189.79"/>
    </edge>
    <edge id=":1168527908_0" function="internal">
        <lane id=":1168527908_0_0" index="0" disallow="tram rail_urban rail rail_electric ship" speed="1.56" length="4.67" shape="71.30,187.00 71.39,188.44 70.99,189.24 70.11,189.41 68.75,188.93"/>
    </edge>
    <edge id=":1210802246_0" function="internal">
        <lane id=":1210802246_0_0" index="0" disallow="tram rail_urban rail rail_electric ship" speed="2.75" length="9.03" shape="437.68,327.25 435.20,327.45 433.41,328.41 432.29,330.11 431.86,332.55"/>
    </edge>
    <edge id=":1210802246_1" function="internal">
        <lane id=":1210802246_1_0" index="0" disallow="tram rail_urban rail rail_electric ship" speed="5.56" length="14.37" shape="437.68,327.25 423.35,326.23"/>
    </edge>
    <edge id=":1210802246_2" function="internal">
        <lane id=":1210802246_2_0" index="0" disallow="tram rail_urban rail rail_electric ship" speed="5.56" length="14.29" shape="423.61,323.04 437.87,324.05"/>
    </edge>
    <edge id=":1210802246_3" function="internal">
        <lane id=":1210802246_3_0" index="0" disallow="tram rail_urban rail rail_electric ship" speed="3.47" length="14.20" shape="423.61,323.04 427.33,323.90 429.95,325.77 431.45,328.66 431.86,332.55"/>
    </edge>
    <edge id=":1210802246_4" function="internal">
        <lane id=":1210802246_4_0" index="0" disallow="tram rail_urban rail rail_electric ship" speed="2.85" length="9.21" shape="428.66,332.44 428.40,329.90 427.43,328.01 425.75,326.79 423.35,326.23"/>
    </edge>
    <edge id=":1210802246_5" function="internal">
        <lane id=":1210802246_5_0" index="0" disallow="tram rail_urban rail rail_electric ship" speed="3.39" length="14.29" shape="428.66,332.44 429.35,328.57 431.11,325.89 433.95,324.38 437.87,324.05"/>
    </edge>
    <edge id=":1210802246_w0" function="walkingarea">
        <lane id=":1210802246_w0_0" index="0" allow="pedestrian" speed="1.00" length="10.05" width="3.20" shape="437.59,328.84 437.77,325.65 437.77,325.65 437.96,322.45 423.75,321.45 423.48,324.64 423.48,324.64 423.22,327.83 427.06,332.38 430.26,332.49 430.26,332.49 433.45,332.61 436.36,328.88 435.35,329.16 434.56,329.67 433.98,330.41 433.61,331.39"/>
    </edge>
    <edge id=":1210802252_0" function="internal">
        <lane id=":1210802252_0_0" index="0" disallow="tram rail_urban rail rail_electric ship" speed="3.09" length="8.15" shape="378.07,341.05 377.99,339.00 377.32,337.21 376.06,335.70 374.21,334.47"/>
    </edge>
    <edge id=":1210802252_1" function="internal">
        <lane id=":1210802252_1_0" index="0" disallow="tram rail_urban rail rail_electric ship" speed="5.27" length="10.50" shape="378.07,341.05 378.48,338.03 379.14,335.95 380.36,334.12 382.41,331.84"/>
    </edge>
    <edge id=":1210802252_2" function="internal">
        <lane id=":1210802252_2_0" index="0" disallow="tram rail_urban rail rail_electric ship" speed="3.25" length="6.66" shape="384.06,334.64 383.04,335.51 382.24,336.77 381.68,338.42 381.34,340.47"/>
    </edge>
    <edge id=":1210802252_3" function="internal">
        <lane id=":1210802252_3_0" index="0" disallow="tram rail_urban rail rail_electric ship" speed="3.83" length="10.29" shape="384.06,334.64 381.78,335.61 379.38,335.90 376.86,335.52 374.21,334.47"/>
    </edge>
    <edge id=":1210802252_4" function="internal">
        <lane id=":1210802252_4_0" index="0" disallow="tram rail_urban rail rail_electric ship" speed="2.76" length="7.03" shape="375.86,331.72 377.96,332.59 379.75,332.90 381.23,332.65 382.41,331.84"/>
    </edge>
    <edge id=":1210802252_5" function="internal">
        <lane id=":1210802252_5_0" index="0" disallow="tram rail_urban rail rail_electric ship" speed="3.55" length="11.03" shape="375.86,331.72 378.47,333.42 380.25,335.45 381.21,337.80 381.34,340.47"/>
    </edge>
    <edge id=":1210802252_w0" function="walkingarea">
        <lane id=":1210802252_w0_0" index="0" allow="pedestrian" speed="1.00" length="7.63" width="3.20" shape="376.48,340.90 379.66,341.21 379.75,340.32 382.93,340.63 384.87,336.02 383.25,333.26 383.58,332.93 381.23,330.75 376.58,330.29 375.13,333.14 374.94,333.05 373.48,335.89 376.48,339.84 376.29,338.87 375.89,337.99 375.29,337.20 374.49,336.50"/>
    </edge>
    <edge id=":1210802332_0" function="internal">
        <lane id=":1210802332_0_0" index="0" disallow="tram rail_urban rail rail_electric ship" speed="2.89" length="9.31" shape="405.61,297.81 403.02,298.02 401.07,298.95 399.76,300.59 399.09,302.95"/>
    </edge>
    <edge id=":1210802332_1" function="internal">
        <lane id=":1210802332_1_0" index="0" disallow="tram rail_urban rail rail_electric ship" speed="3.57" length="14.90" shape="405.61,297.81 401.88,297.02 399.20,295.08 397.58,291.98 397.01,287.73"/>
    </edge>
    <edge id=":1210802332_2" function="internal">