<?xml version="1.0" encoding="UTF-8"?>
<configuration xmlns:xsi="http://www.w3.org/2001/XMLSchema-instance" xsi:noNamespaceSchemaLocation="http://sumo.dlr.de/xsd/sumoConfiguration.xsd">
	<input>
		<net-file value="map.net.xml"/>
		<route-files value="routes.rou.xml"/>
		<additional-files value="poly.xml"/>
	</input>
	<time>
		<begin value="0"/>
		<end value="10000"/>
	</time>
	<gui_only>
		<gui-settings-file value ="osm.view.xml"/>
	</gui_only>
</configuration>
